&NAMFPC
    CFP2DF = 'MSLPRESSURE', 'SURFCAPE.POS.F00', 'SURFCIEN.POS.F00', 'SURFEQUILIBRLEV',
             'SURFFREECONVLEV', 'SURFISOTPW0.MALT', 'SURFLIFTCONDLEV', 'SURFPRESSION',
             'SURFTOT.WAT.VAPO'
    CFP3DF = 'ABS_VORTICITY', 'CLOUD_FRACTI', 'DIVERGENCE', 'GEOPOTENTIEL',
             'GRAUPEL', 'HUMI.SPECIFI', 'HUMI_RELATIVE', 'ISOT_ALTIT', 'LIQUID_WATER',
             'POT_VORTICITY', 'PRESSURE', 'RAIN', 'SNOW', 'SOLID_WATER',
             'TEMPERATURE', 'TEMPE_POTENT', 'THETA_PRIM_W', 'THETA_VIRTUA',
             'VERT.VELOCIT', 'WIND.U.PHYS', 'WIND.V.PHYS'
    CFPCFU = 'SOMMFLU.RAY.SOLA', 'SOMMFLU.RAY.THER', 'SURFACCGRAUPEL', 'SURFACCNEIGE',
             'SURFACCPLUIE', 'SURFFLU.CHA.SENS', 'SURFFLU.LAT.MEVA', 'SURFFLU.LAT.MSUB',
             'SURFFLU.MEVAP.EA', 'SURFFLU.MSUBL.NE', 'SURFFLU.RAY.SOLA',
             'SURFFLU.RAY.THER', 'SURFRAYT SOLA DE', 'SURFRAYT THER DE',
             'SURFTENS.TURB.ME', 'SURFTENS.TURB.ZO'
    CFPDOM = 'DEMO_60x80_2500m'
    CFPFMT = 'LELAM'
    CFPPHY = 'SURFRESERV.NEIGE', 'SURFTEMPERATURE'
    CFPXFU = 'CLPMHAUT.MOD.XFU', 'CLSHUMI.RELATIVE', 'CLSHUMI.SPECIFIQ',
             'CLSMAXI.TEMPERAT', 'CLSMINI.TEMPERAT', 'CLSTEMPERATURE', 'CLSU.RAF.MOD.XFU',
             'CLSV.RAF.MOD.XFU', 'CLSVENT.MERIDIEN', 'CLSVENT.ZONAL', 'SURFDIAGHAIL',
             'SURFINSGRAUPEL', 'SURFINSNEIGE', 'SURFINSPLUIE', 'SURFNEBUL.BASSE',
             'SURFNEBUL.CONVEC', 'SURFNEBUL.HAUTE', 'SURFNEBUL.MOYENN',
             'SURFNEBUL.TOTALE'
    LFPCAPEX = .TRUE.
    LFPMOIS = .FALSE.
    LISOT_ABOVEG = .TRUE.
    L_READ_MODEL_DATE = .TRUE.
    NFPCAPE = 5
    NFPCLI = 1
    NFPGRIB = 141
    NRFP3S = 65
    RFP3H = 20.0, 50.0, 100.0, 250.0, 500.0, 750.0, 1000.0, 1250.0, 1500.0,
            2000.0, 2500.0, 3000.0
    RFP3I = -273.15, -263.15
    RFP3P = 5000.0, 10000.0, 25000.0, 30000.0, 50000.0, 60000.0, 70000.0,
            80000.0, 85000.0, 92500.0, 95000.0, 100000.0
    RFP3PV = 1.5e-06, 2e-06
/

&NAMGFL
    NGFL_EZDIAG = 3
    YA_NL%LPT = .FALSE.
    YA_NL%LREQOUT = .TRUE.
    YA_NL%NREQIN = 1
    YEZDIAG_NL(1)%CNAME = 'EZDIAG01'
    YEZDIAG_NL(1)%LREQOUT = .FALSE.
    YEZDIAG_NL(2)%CNAME = 'EZDIAG02'
    YEZDIAG_NL(2)%LREQOUT = .FALSE.
    YEZDIAG_NL(3)%CNAME = 'EZDIAG03'
    YEZDIAG_NL(3)%LREQOUT = .FALSE.
    YG_NL%CNAME = 'GRAUPEL'
    YG_NL%LPT = .FALSE.
    YG_NL%LQM = .TRUE.
    YG_NL%LSLHD = .TRUE.
    YG_NL%NCOUPLING = -1
    YG_NL%NREQIN = -1
    YG_NL%REFVALC = 0.0
    YG_NL%REFVALI = 0.0
    YI_NL%CNAME = 'SOLID_WATER'
    YI_NL%LPT = .FALSE.
    YI_NL%LQM = .TRUE.
    YI_NL%LSLHD = .TRUE.
    YI_NL%NCOUPLING = -1
    YI_NL%NREQIN = 1
    YI_NL%REFVALC = 0.0
    YL_NL%CNAME = 'LIQUID_WATER'
    YL_NL%LPT = .FALSE.
    YL_NL%LQM = .TRUE.
    YL_NL%LSLHD = .TRUE.
    YL_NL%NCOUPLING = -1
    YL_NL%NREQIN = 1
    YL_NL%REFVALC = 0.0
    YQ_NL%CNAME = 'HUMI.SPECIFI'
    YQ_NL%LCOMAD = .TRUE.
    YQ_NL%LPT = .FALSE.
    YQ_NL%LQM = .TRUE.
    YQ_NL%LSLHD = .FALSE.
    YQ_NL%NCOUPLING = 1
    YQ_NL%NREQIN = 1
    YR_NL%CNAME = 'RAIN'
    YR_NL%LPT = .FALSE.
    YR_NL%LQM = .TRUE.
    YR_NL%LSLHD = .TRUE.
    YR_NL%NCOUPLING = -1
    YR_NL%NREQIN = -1
    YR_NL%REFVALC = 0.0
    YR_NL%REFVALI = 0.0
    YSRC_NL%LPT = .FALSE.
    YS_NL%CNAME = 'SNOW'
    YS_NL%LPT = .FALSE.
    YS_NL%LQM = .TRUE.
    YS_NL%LSLHD = .TRUE.
    YS_NL%NCOUPLING = -1
    YS_NL%NREQIN = -1
    YS_NL%REFVALC = 0.0
    YS_NL%REFVALI = 0.0
    YTKE_NL%LPT = .FALSE.
    YTKE_NL%NCOUPLING = 0
    YTKE_NL%NREQIN = -1
/

&NAMPARAR
    CMF_CLOUD = 'STAT'
    CMF_UPDRAFT = 'DUAL'
    LHARATU = .TRUE.
    LHGT_QS = .TRUE.
    LICERAD = .TRUE.
    LKOGAN = .TRUE.
    LLCRIT = .TRUE.
    LMIXUV = .FALSE.
    LOCND2 = .TRUE.
    LOLSMC = .TRUE.
    LOSEDIC = .TRUE.
    LOSIGMAS = .TRUE.
    LOSUBG_COND = .TRUE.
    LOTOWNC = .TRUE.
    LSHALLOWMF = .TRUE.
    LSTATNW = .TRUE.
    LTOTPREC = .FALSE.
    NPRINTFR = 10000
    NPTP = 1
    NSWB_MNH = 6
    RADGR = 0.5
    RADSN = 1.0
    RFRMIN(1) = 1e-05
    RFRMIN(12) = 0.05
    RFRMIN(2) = 1e-08
    RFRMIN(22) = 0.25
    RFRMIN(24) = 2.5
    RFRMIN(26) = 250000000.0
    RFRMIN(29) = 1000.0
    RFRMIN(3) = 3e-09
    RFRMIN(4) = 3e-09
    RFRMIN(7) = 0.0
    VSIGQSAT = 0.02
/

&NAMPARAR
/
&NAMGEM
/