&NAM_DIAG_ISBAN
  LPGD=.T.,
  LSURF_MISC_BUDGET=.T.,
/
&NAM_DIAG_SURFN
  LSURF_BUDGET=.T.,
  N2M=2,
/
&NAM_ISBAN
  CROUGH='NONE',
  LCANOPY_DRAG=.T.,
  XCDRAG=0.1,
/
&NAM_REPROD_OPER
  LREPROD_OPER=.T.,
/
&NAM_SEAFLUXN
  CSEA_FLUX='ECUME',
  LPRECIP=.F.,
  LPWEBB=.F.,
  LPWG=.F.,
/
&NAM_SSON
  CROUGH='Z01D',
  LDSH=.T.,
  LDSL=.T.,
  LDSV=.F.,
  XFRACZ0=10.,
/
&NAM_SURF_ATM
  LNOSOF=.T.,
  XRIMAX=0.2,
/
&NAM_SURF_ATMN
/
&NAM_WRITE_DIAG_SURFN
/
&NAM_WRITE_SURF_ATM
  LNOWRITE_TEXFILE=.T.,
/
