 &NAEAEM7
 /
 &NAEPHLI
 /
 &NAEPHY
 /
 &NAERAD
   LSRTM=.FALSE.,
 /
 &NAERCLI
 /
 &NAEVOL
 /
 &NAMAFN
 /
 &NAMARG
   CNMEXP = '${general.cnmexp}'
   LECMWF=.FALSE.,
   LELAM=.TRUE.,
   NCONF=923,
   NSUPERSEDE=0,
 /
 &NAMARPHY
 /
 &NAMCA
 /
 &NAMCAPE
 /
 &NAMCFU
 /
 &NAMCHEM
 /
 &NAMCHET
 /
 &NAMCHK
 /
 &NAMCLA
   FENVN=0.,
   LKEYF=.TRUE.,
   LNEWORO=.FALSE.,
   LNEWORO2=.FALSE.,
   LNORO=.TRUE.,
   LNLSM=.TRUE.,
   LIPGD=.FALSE.,
   NLISSP=1,
   NLISSZ=1,
 /
 &NAMCLDP
 /
 &NAMCLI
   LZ0THER=.FALSE.,
   RSTR=0.,
 /
 &NAMCOM
 /
 &NAMCOSJO
 /
 &NAMCT0
   LRPLANE=.TRUE.,
 /
 &NAMCT1
 /
 &NAMCUMF
 /
 &NAMCUMFS
 /
 &NAMCVER
 /
 &NAMDDH
 /
 &NAMDIM
   NDGLG = '${domain.ndglg}'
   NDGUXG = '${domain.njmax}'
   NDLON = '${domain.ndguxg}'
   NDLUXG = '${domain.nimax}'
   NFLEVG = 1
   NMSMAX = '${domain.nmsmax}'
   NSMAX = '${domain.nsmax}'
 /
 &NAMDIM_TRAJ
 /
 &NAMDPHY
 /
 &NAMDVISI
 /
 &NAMDYN
 /
 &NAMDYNA
 /
 &NAMDYNCORE
 /
 &NAMENKF
 /
 &NAMFA
   NVGRIB=123,
 /
 &NAMFAINIT
  JPXTRO=2000,
 /
 &NAMFPC
 /
 &NAMFPD
 /
 &NAMFPSC2
 /
 &NAMGEM
 /
 &NAMGFL
 /
 &NAMGRIB
   NCYCLE=48,
 /
 &NAMGWD
 /
 &NAMGWDIAG
 /
 &NAMGWWMS
 /
 &NAMHCP
 /
 &NAMHLOPT
 /
 &NAMIAU
 /
 &NAMINI
 /
 &NAMINTFLEX
 /
 &NAMIOMI
 /
 &NAMIOS
 /
 &NAMJG
 /
 &NAMLCZ
 /
 &NAMMCC
   N923=8,
 /
 &NAMMCUF
 /
 &NAMMETHOX
 /
 &NAMMTS
 /
 &NAMNORGWD
 /
 &NAMNUD
 /
 &NAMNUDGLH
 /
 &NAMOOPS
 /
 &NAMOPH
 /
 &NAMPAR0
   NPROC=1,
 /
 &NAMPAR1
   LSPLIT=.FALSE.,
 /
 &NAMPARAR
 /
 &NAMPHMSE
 /
 &NAMPHY
   LMPHYS=.TRUE.,
   LSOLV=.TRUE.,
   LVGSN=.TRUE.,
 /
 &NAMPHY0
   GCVPSI=0.,
 /
 &NAMPHY1
 /
 &NAMPHY2
 /
 &NAMPHY3
 /
 &NAMPHYDS
 /
 &NAMPPC
 /
 &NAMPPVI
 /
 &NAMRCOEF
 /
 &NAMRES
 /
 &NAMRGRI
 /
 &NAMRINC
 /
 &NAMRIP
 /
 &NAMRIP0
 /
 &NAMRLX
 /
 &NAMSATS
 /
 &NAMSCEN
 /
 &NAMSCM
 /
 &NAMSENS
 /
 &NAMSIMPHL
 /
 &NAMSPNG
 /
 &NAMSPP
 /
 &NAMSPSDT
 /
 &NAMSTA
 /
 &NAMSTOPH
 /
 &NAMTESTVAR
 /
 &NAMTOPH
 /
 &NAMTRAJ
 /
 &NAMTRAJP
 /
 &NAMTRANS
 /
 &NAMTRANS0
 /
 &NAMVAR
 /
 &NAMVAREPS
 /
 &NAMVDF
 /
 &NAMVDOZ
 /
 &NAMVRTL
 /
 &NAMVV0
 /
 &NAMVWRK
 /
 &NAMWAVELETJB
 /
 &NAMXFU
 /
 &NAM_DISTRIBUTED_VECTORS
 /
 &NAPHLC
 /
 &NEMBICU
 /
 &NEMCT0
 /
 &NEMDIM
   NBZONG = '${domain.nbzong}'
   NBZONL = '${domain.nbzonl}'
 /
 &NEMDYN
 /
 &NEMELBC0A
 /
 &NEMELBC0B
 /
 &NEMGEO
   EDELX = '${domain.xdx}'
   EDELY = '${domain.xdy}'
   ELAT0 = '${domain.xlat0}'
   ELATC = '${domain.xlatcen}'
   ELON0 = '${domain.xlon0}'
   ELONC = '${domain.xloncen}'
 /
 &NAMPERTPAR
 /
 &NAMNUDGLH
 /
 &NAETLDIAG
 /
